test/fixtures/opendss/component_load_model2_parity.dss
Clear
New Circuit.load_model2_parity BasekV=12.47 pu=1.0 phases=3 bus1=src.1.2.3

New LineCode.tie nphases=3 units=kft r1=0.2 x1=0.4 r0=0.6 x0=1.2 c1=0 c0=0
New Line.to_w phases=3 bus1=src.1.2.3 bus2=wbus.1.2.3 linecode=tie length=0.20
New Line.to_d phases=3 bus1=src.1.2.3 bus2=dbus.1.2.3 linecode=tie length=0.20
New Line.to_s phases=3 bus1=src.1.2.3 bus2=sbus.1.2.3 linecode=tie length=0.20

New Load.zwye phases=3 bus1=wbus.1.2.3 conn=wye kv=12.47 kW=180 kvar=90 model=2
New Load.zdelta phases=3 bus1=dbus.1.2.3 conn=delta kv=12.47 kW=120 kvar=60 model=2
New Load.zdelta1 phases=1 bus1=sbus.1 conn=delta kv=12.47 kW=30 kvar=10 model=2

Solve
